Circuit: *** SPICE deck for cell csm_non_pipelined{sch} from library project2

Per .tran options, skipping operating point for transient analysis.

val_z0: v(z0)=0.000378503 at 1.9e-009
val_z1: v(z1)=0.000305134 at 1.9e-009
val_z2: v(z2)=0.000379866 at 1.9e-009
val_z3: v(z3)=0.000298922 at 1.9e-009
val_z4: v(z4)=0.000379842 at 1.9e-009
val_z5: v(z5)=0.000307824 at 1.9e-009
val_z6: v(z6)=0.999925 at 1.9e-009
val_z7: v(z7)=0.999802 at 1.9e-009
val_z8: v(z8)=0.000379731 at 1.9e-009
val_z9: v(z9)=0.000823563 at 1.9e-009
val_z10: v(z10)=0.000380138 at 1.9e-009
val_z11: v(z11)=0.000824173 at 1.9e-009
val_z12: v(z12)=0.000380083 at 1.9e-009
val_z13: v(z13)=0.000821937 at 1.9e-009
val_z14: v(z14)=0.000380081 at 1.9e-009
val_z15: v(z15)=0.000820851 at 1.9e-009


Date: Wed Jan 06 19:13:57 2021
Total elapsed time: 37.753 seconds.

tnom = 27
temp = 27
method = modified trap
totiter = 3205
traniter = 3205
tranpoints = 1044
accept = 1044
rejected = 0
matrix size = 8521
fillins = 1928
solver = Normal
Thread vector: 16259.1/7930.4[4] 2590.5/798.6[4] 959.3/472.9[4] 401.6/300.6[3]  2592/500
Matrix Compiler1: 1.62 MB object code size  4001.5/1919.4/[984.2]
Matrix Compiler2: 1.12 MB object code size  1594.1/1602.4/[649.8]

