Circuit: *** SPICE deck for cell csm_non_pipelined_reg{sch} from library project_kansu3

Vy7: Removing PWL point (6e-009,1)
Vy6: Removing PWL point (6e-009,1)
Vy5: Removing PWL point (6e-009,1)
Vy4: Removing PWL point (6e-009,1)
Vy3: Removing PWL point (6e-009,1)
Vy2: Removing PWL point (6e-009,1)
Vy1: Removing PWL point (6e-009,1)
Vy0: Removing PWL point (6e-009,1)
Vx7: Removing PWL point (1.2e-009,0)
Vx6: Removing PWL point (1.2e-009,0)
Vx5: Removing PWL point (1.2e-009,0)
Vx4: Removing PWL point (1.2e-009,0)
Vx3: Removing PWL point (1.2e-009,0)
Vx2: Removing PWL point (1.2e-009,0)
Vx1: Removing PWL point (1.2e-009,0)
Vx0: Removing PWL point (6e-009,1)
Per .tran options, skipping operating point for transient analysis.

x0toz0=3.02296e-010 FROM 9.8284e-009 TO 1.01307e-008
x0toclk=-2.84046e-011 FROM 9.8284e-009 TO 9.8e-009
z15toclk=3.307e-010 FROM 9.8e-009 TO 1.01307e-008


Date: Mon Jan 11 03:22:42 2021
Total elapsed time: 101.649 seconds.

tnom = 27
temp = 27
method = modified trap
totiter = 2892
traniter = 2892
tranpoints = 1091
accept = 1082
rejected = 9
matrix size = 13195
fillins = 4418
solver = Normal
Thread vector: 27308.2/14675.7[4] 4535.2/2873.6[4] 2601.0/2973.6[1] 770.5/1076.9[1]  2592/500
Matrix Compiler1: 2.88 MB object code size  11024.1/4063.3/[1959.8]
Matrix Compiler2: 1.75 MB object code size  5241.8/3053.3/[1305.9]

