Circuit: *** SPICE deck for cell csm_pipelined{sch} from library project_kansu3

Vy7: Removing PWL point (6e-009,1)
Vy6: Removing PWL point (6e-009,1)
Vy5: Removing PWL point (6e-009,1)
Vy4: Removing PWL point (6e-009,1)
Vy3: Removing PWL point (6e-009,1)
Vy2: Removing PWL point (6e-009,1)
Vy1: Removing PWL point (6e-009,1)
Vy0: Removing PWL point (6e-009,1)
Vx7: Removing PWL point (1.2e-009,0)
Vx6: Removing PWL point (1.2e-009,0)
Vx5: Removing PWL point (1.2e-009,0)
Vx4: Removing PWL point (1.2e-009,0)
Vx3: Removing PWL point (1.2e-009,0)
Vx2: Removing PWL point (1.2e-009,0)
Vx1: Removing PWL point (1.2e-009,0)
Vx0: Removing PWL point (6e-009,1)
Per .tran options, skipping operating point for transient analysis.

x0toz0=3.27459e-010 FROM 9.8284e-009 TO 1.01559e-008
x0toclk=-2.84046e-011 FROM 9.8284e-009 TO 9.8e-009
z15toclk=3.55864e-010 FROM 9.8e-009 TO 1.01559e-008


Date: Mon Jan 11 03:48:06 2021
Total elapsed time: 105.658 seconds.

tnom = 27
temp = 27
method = modified trap
totiter = 2791
traniter = 2791
tranpoints = 1091
accept = 1082
rejected = 9
matrix size = 15385
fillins = 4626
solver = Normal
Thread vector: 31174.2/17792.3[4] 7317.3/5836.9[4] 2310.0/2110.1[1] 926.5/1224.7[1]  2592/500
Matrix Compiler1: 3.17 MB object code size  9700.8/3882.3/[2215.8]
Matrix Compiler2: 2.02 MB object code size  5131.1/3385.2/[1444.2]

