Circuit: *** SPICE deck for cell sta_char_and{sch} from library project_kansu3

Vin1: Removing PWL point (1.2e-009,0)
Vin1: Removing PWL point (2.1e-008,1)
Vin1: Removing PWL point (5.6e-008,0)
Vin1: Removing PWL point (7.6e-008,1)
Vin1: Removing PWL point (8.6e-008,0)
Vin0: Removing PWL point (1.2e-009,0)
Vin0: Removing PWL point (1.6e-008,0)
Vin0: Removing PWL point (3.1e-008,0)
Vin0: Removing PWL point (4.1e-008,1)
WARNING: Node FA_C3X_S2X:B#0NMOS@3_POLY-LEFT##1 is floating.
WARNING: Node FA_C3X_S2X:CI#0NMOS@5_POLY-LEFT##1 is floating.
WARNING: Node FA_C3X_S2X:A#0CONTACT@34_METAL-1-POLYSILICON-1##2 is floating.
WARNING: Node FA_C3X_S@0:B#0NMOS@3_POLY-LEFT##1 is floating.
WARNING: Node FA_C3X_S@0:A#0CONTACT@34_METAL-1-POLYSILICON-1##2 is floating.

WARNING: Less than two connections to node Y.  This node is used by R:AND1X:24.
Per .tran options, skipping operating point for transient analysis.

delay_1=2.00905e-008 FROM 6.1e-009 TO 2.61905e-008
delay_2=1.50905e-008 FROM 1.11e-008 TO 2.61905e-008
delay_3=1.00905e-008 FROM 1.61e-008 TO 2.61905e-008
delay_4=3.6293e-011 FROM 2.11e-008 TO 2.11363e-008
delay_5=2.01328e-011 FROM 2.61e-008 TO 2.61201e-008
delay_6=1.00916e-008 FROM 3.11e-008 TO 4.11916e-008
delay_7=2.59322e-011 FROM 3.61e-008 TO 3.61259e-008
delay_8=2.13439e-011 FROM 4.11e-008 TO 4.11213e-008
delay_9=3.45571e-011 FROM 4.61e-008 TO 4.61346e-008
delay_10=1.62668e-011 FROM 5.11e-008 TO 5.11163e-008
delay_11=2.50868e-008 FROM 5.61e-008 TO 8.11868e-008
delay_12=2.00868e-008 FROM 6.11e-008 TO 8.11868e-008
delay_13=1.50868e-008 FROM 6.61e-008 TO 8.11868e-008
delay_14=1.00868e-008 FROM 7.11e-008 TO 8.11868e-008
delay_15=3.62922e-011 FROM 7.61e-008 TO 7.61363e-008
delay_16=1.62684e-011 FROM 8.11e-008 TO 8.11163e-008

Measurement "delay_17" FAIL'ed


Date: Mon Jan 11 02:45:39 2021
Total elapsed time: 4.069 seconds.

tnom = 27
temp = 27
method = modified trap
totiter = 3015
traniter = 3015
tranpoints = 1156
accept = 1152
rejected = 4
matrix size = 905
fillins = 1332
solver = Normal
Thread vector: 1384.7/911.2[4] 203.0/83.3[3] 39.9/30.5[3] 30.4/48.6[1]  2592/500
Matrix Compiler1: 184.47 KB object code size  250.2/153.4/[82.9]
Matrix Compiler2: 116.91 KB object code size  92.0/87.5/[50.3]

