Circuit: *** SPICE deck for cell sta_char_fa_vmerge1{sch} from library project_kansu3

Vin2: Removing PWL point (1.2e-009,0)
Vin2: Removing PWL point (6.1e-008,1)
Vin2: Removing PWL point (1.21e-007,1)
Vin2: Removing PWL point (1.36e-007,0)
Vin2: Removing PWL point (2.36e-007,0)
Vin2: Removing PWL point (2.51e-007,0)
Vin2: Removing PWL point (2.86e-007,0)
Vin2: Removing PWL point (3.06e-007,1)
Vin2: Removing PWL point (3.26e-007,0)
Vin1: Removing PWL point (1.2e-009,0)
Vin1: Removing PWL point (2.1e-008,1)
Vin1: Removing PWL point (5.6e-008,0)
Vin1: Removing PWL point (7.6e-008,1)
Vin1: Removing PWL point (1.11e-007,0)
Vin1: Removing PWL point (1.31e-007,0)
Vin1: Removing PWL point (1.46e-007,0)
Vin1: Removing PWL point (1.61e-007,1)
Vin1: Removing PWL point (2.01e-007,1)
Vin1: Removing PWL point (2.16e-007,0)
Vin1: Removing PWL point (2.36e-007,0)
Vin1: Removing PWL point (2.86e-007,1)
Vin1: Removing PWL point (3.06e-007,0)
Vin1: Removing PWL point (3.16e-007,1)
Vin1: Removing PWL point (3.26e-007,0)
Vin1: Removing PWL point (3.36e-007,1)
Vin0: Removing PWL point (1.2e-009,0)
Vin0: Removing PWL point (1.6e-008,0)
Vin0: Removing PWL point (3.1e-008,0)
Vin0: Removing PWL point (4.1e-008,1)
Vin0: Removing PWL point (5.6e-008,0)
Vin0: Removing PWL point (7.1e-008,0)
Vin0: Removing PWL point (8.6e-008,0)
Vin0: Removing PWL point (9.6e-008,1)
Vin0: Removing PWL point (1.11e-007,0)
Vin0: Removing PWL point (1.31e-007,1)
Vin0: Removing PWL point (1.46e-007,1)
Vin0: Removing PWL point (1.56e-007,0)
Vin0: Removing PWL point (1.76e-007,1)
Vin0: Removing PWL point (1.91e-007,0)
Vin0: Removing PWL point (2.11e-007,1)
Vin0: Removing PWL point (2.26e-007,1)
Vin0: Removing PWL point (2.56e-007,0)
Vin0: Removing PWL point (2.71e-007,1)
WARNING: Node FA_C3X_S2X:B#0NMOS@3_POLY-LEFT##1 is floating.
WARNING: Node FA_C3X_S2X:CI#0NMOS@5_POLY-LEFT##1 is floating.
WARNING: Node FA_C3X_S2X:A#0CONTACT@34_METAL-1-POLYSILICON-1##2 is floating.
WARNING: Node DUT_1:CI#0NMOS@5_POLY-LEFT##1 is floating.
WARNING: Node DUT_1:A#0CONTACT@34_METAL-1-POLYSILICON-1##2 is floating.

WARNING: Less than two connections to node Y.  This node is used by R:INV1X:1.
WARNING: Less than two connections to node STATICFF@0_Y.  This node is used by R:STATICFF@0:INV@2:1.
Per .tran options, skipping operating point for transient analysis.

delay_1=2.00216e-008 FROM 6.1e-009 TO 2.61216e-008
delay_2=1.50216e-008 FROM 1.11e-008 TO 2.61216e-008
delay_3=1.00216e-008 FROM 1.61e-008 TO 2.61216e-008
delay_4=2.39682e-011 FROM 2.11e-008 TO 2.1124e-008
delay_5=2.15906e-011 FROM 2.61e-008 TO 2.61216e-008
delay_6=1.00552e-008 FROM 3.11e-008 TO 4.11552e-008
delay_7=4.0382e-011 FROM 3.61e-008 TO 3.61404e-008
delay_8=5.52175e-011 FROM 4.11e-008 TO 4.11552e-008
delay_9=2.44357e-011 FROM 4.61e-008 TO 4.61244e-008
delay_10=4.49678e-012 FROM 5.11e-008 TO 5.11045e-008
delay_11=1.00127e-008 FROM 5.61e-008 TO 6.61127e-008
delay_12=2.89913e-011 FROM 6.11e-008 TO 6.1129e-008
delay_13=1.27001e-011 FROM 6.61e-008 TO 6.61127e-008
delay_14=7.02514e-011 FROM 7.11e-008 TO 7.11703e-008
delay_15=1.50066e-008 FROM 7.61e-008 TO 9.11066e-008
delay_16=1.00066e-008 FROM 8.11e-008 TO 9.11066e-008
delay_17=1.73051e-011 FROM 8.61e-008 TO 8.61173e-008
delay_18=6.57317e-012 FROM 9.11e-008 TO 9.11066e-008
delay_19=2.0027e-008 FROM 9.61e-008 TO 1.16127e-007
delay_20=1.5027e-008 FROM 1.011e-007 TO 1.16127e-007
delay_21=2.50717e-011 FROM 1.061e-007 TO 1.06125e-007
delay_22=2.00511e-008 FROM 1.111e-007 TO 1.31151e-007
delay_23=2.69832e-011 FROM 1.161e-007 TO 1.16127e-007
delay_24=2.50247e-008 FROM 1.211e-007 TO 1.46125e-007
delay_25=2.00247e-008 FROM 1.261e-007 TO 1.46125e-007
delay_26=5.10784e-011 FROM 1.311e-007 TO 1.31151e-007
delay_27=1.50055e-008 FROM 1.361e-007 TO 1.51105e-007
delay_28=1.00055e-008 FROM 1.411e-007 TO 1.51105e-007
delay_29=2.46705e-011 FROM 1.461e-007 TO 1.46125e-007
delay_30=5.45528e-012 FROM 1.511e-007 TO 1.51105e-007
delay_31=8.80233e-011 FROM 1.561e-007 TO 1.56188e-007
delay_32=2.21277e-011 FROM 1.611e-007 TO 1.61122e-007
delay_33=5.99657e-011 FROM 1.661e-007 TO 1.6616e-007
delay_34=2.50109e-008 FROM 1.711e-007 TO 1.96111e-007
delay_35=2.00109e-008 FROM 1.761e-007 TO 1.96111e-007
delay_36=1.50109e-008 FROM 1.811e-007 TO 1.96111e-007
delay_37=1.00109e-008 FROM 1.861e-007 TO 1.96111e-007
delay_38=7.48746e-012 FROM 1.911e-007 TO 1.91107e-007
delay_39=1.09389e-011 FROM 1.961e-007 TO 1.96111e-007
delay_40=2.50373e-011 FROM 2.011e-007 TO 2.01125e-007
delay_41=6.89472e-012 FROM 2.061e-007 TO 2.06107e-007
delay_42=7.37891e-011 FROM 2.111e-007 TO 2.11174e-007
delay_43=1.50117e-008 FROM 2.161e-007 TO 2.31112e-007
delay_44=1.00117e-008 FROM 2.211e-007 TO 2.31112e-007
delay_45=7.08408e-012 FROM 2.261e-007 TO 2.26107e-007
delay_46=1.17244e-011 FROM 2.311e-007 TO 2.31112e-007
delay_47=1.00599e-008 FROM 2.361e-007 TO 2.4616e-007
delay_48=6.88053e-011 FROM 2.411e-007 TO 2.41169e-007
delay_49=5.98953e-011 FROM 2.461e-007 TO 2.4616e-007
delay_50=3.00276e-008 FROM 2.511e-007 TO 2.81128e-007
delay_51=2.50276e-008 FROM 2.561e-007 TO 2.81128e-007
delay_52=2.00276e-008 FROM 2.611e-007 TO 2.81128e-007
delay_53=3.55888e-011 FROM 2.661e-007 TO 2.66136e-007
delay_54=1.5024e-008 FROM 2.711e-007 TO 2.86124e-007
delay_55=1.0024e-008 FROM 2.761e-007 TO 2.86124e-007
delay_56=2.75532e-011 FROM 2.811e-007 TO 2.81128e-007
delay_57=2.39625e-011 FROM 2.861e-007 TO 2.86124e-007
delay_58=1.61042e-011 FROM 2.911e-007 TO 2.91116e-007
delay_59=3.01986e-011 FROM 2.961e-007 TO 2.9613e-007
delay_60=2.99196e-011 FROM 3.011e-007 TO 3.0113e-007
delay_61=3.08228e-011 FROM 3.061e-007 TO 3.06131e-007
delay_62=2.5024e-008 FROM 3.111e-007 TO 3.36124e-007
delay_63=2.0024e-008 FROM 3.161e-007 TO 3.36124e-007
delay_64=3.29609e-012 FROM 3.211e-007 TO 3.21103e-007

Measurement "delay_65" FAIL'ed

Measurement "delay_66" FAIL'ed
delay_67=2.39717e-011 FROM 3.361e-007 TO 3.36124e-007


Date: Mon Jan 11 02:51:36 2021
Total elapsed time: 17.069 seconds.

tnom = 27
temp = 27
method = modified trap
totiter = 7032
traniter = 7032
tranpoints = 1848
accept = 1778
rejected = 70
matrix size = 1452
fillins = 1908
solver = Normal
Thread vector: 3177.8/1985.7[4] 280.2/207.3[4] 73.9/110.8[1] 49.4/135.7[1]  2592/500
Matrix Compiler1: 277.01 KB object code size  600.7/236.9/[108.6]
Matrix Compiler2: 185.08 KB object code size  179.3/152.2/[69.5]

