Circuit: *** SPICE deck for cell sta_char_ff_vmerge{sch} from library project_kansu3

WARNING: Node FA_C3X_S@0_B is floating.
WARNING: Node FA_C3X_S@0_A is floating.

Per .tran options, skipping operating point for transient analysis.

hold_time=2.4e-011 FROM 4.8026e-008 TO 4.805e-008
setup_time=2.2e-011 FROM 2.44028e-007 TO 2.4405e-007


Date: Tue Jan 12 19:53:06 2021
Total elapsed time: 6.992 seconds.

tnom = 27
temp = 27
method = modified trap
totiter = 19460
traniter = 19460
tranpoints = 5816
accept = 4747
rejected = 1069
matrix size = 262
fillins = 36
solver = Normal
Thread vector: 547.4/250.5[4] 66.2/32.9[4] 22.7/10.6[4] 8.6/10.3[1]  2592/500
Matrix Compiler1: 45.28 KB object code size  57.4/27.1/[17.3]
Matrix Compiler2: 34.12 KB object code size  23.3/22.3/[12.4]

