Circuit: *** SPICE deck for cell sta_char_fa_critpath{sch} from library project

Vin2: Removing PWL point (1.2e-009,0)
Vin2: Removing PWL point (1.6e-008,0)
Vin2: Removing PWL point (3.1e-008,0)
Vin2: Removing PWL point (4.1e-008,1)
Vin2: Removing PWL point (5.6e-008,0)
Vin2: Removing PWL point (7.1e-008,0)
Vin2: Removing PWL point (8.6e-008,0)
Vin2: Removing PWL point (9.6e-008,1)
Vin2: Removing PWL point (1.11e-007,0)
Vin2: Removing PWL point (1.31e-007,1)
Vin2: Removing PWL point (1.46e-007,1)
Vin2: Removing PWL point (1.56e-007,0)
Vin2: Removing PWL point (1.76e-007,1)
Vin2: Removing PWL point (1.91e-007,0)
Vin2: Removing PWL point (2.11e-007,1)
Vin2: Removing PWL point (2.26e-007,1)
Vin2: Removing PWL point (2.36e-007,0)
Vin2: Removing PWL point (2.51e-007,0)
Vin2: Removing PWL point (2.61e-007,1)
Vin2: Removing PWL point (2.76e-007,0)
Vin1: Removing PWL point (1.2e-009,0)
Vin1: Removing PWL point (2.1e-008,1)
Vin1: Removing PWL point (5.6e-008,0)
Vin1: Removing PWL point (7.6e-008,1)
Vin1: Removing PWL point (1.11e-007,0)
Vin1: Removing PWL point (1.31e-007,0)
Vin1: Removing PWL point (1.46e-007,0)
Vin1: Removing PWL point (1.61e-007,1)
Vin1: Removing PWL point (2.01e-007,1)
Vin1: Removing PWL point (2.16e-007,0)
Vin1: Removing PWL point (2.46e-007,0)
Vin0: Removing PWL point (1.2e-009,0)
Vin0: Removing PWL point (6.1e-008,1)
Vin0: Removing PWL point (1.21e-007,1)
Vin0: Removing PWL point (1.36e-007,0)
WARNING: Node FA_C3X_S2X:B#0NMOS@3_POLY-LEFT##1 is floating.
WARNING: Node FA_C3X_S2X:CI#0NMOS@5_POLY-LEFT##1 is floating.
WARNING: Node FA_C3X_S2X:A#0CONTACT@34_METAL-1-POLYSILICON-1##2 is floating.
WARNING: Node CO_BAR_LOAD:B#0NMOS@3_POLY-LEFT##1 is floating.
WARNING: Node CO_BAR_LOAD:CI#0NMOS@5_POLY-LEFT##1 is floating.
WARNING: Node S_BAR_LOAD:B#0NMOS@3_POLY-LEFT##1 is floating.
WARNING: Node S_BAR_LOAD:A#0CONTACT@34_METAL-1-POLYSILICON-1##2 is floating.

Per .tran options, skipping operating point for transient analysis.

delay_1=1.55857e-011 FROM 6.1e-009 TO 6.11559e-009
delay_2=4.10235e-011 FROM 1.11e-008 TO 1.1141e-008
delay_3=1.76019e-011 FROM 1.61e-008 TO 1.61176e-008
delay_4=4.95589e-011 FROM 2.11e-008 TO 2.11496e-008
delay_5=1.53161e-011 FROM 2.61e-008 TO 2.61153e-008
delay_6=5.65286e-011 FROM 3.11e-008 TO 3.11565e-008
delay_7=1.00149e-008 FROM 3.61e-008 TO 4.61149e-008
delay_8=6.89643e-011 FROM 4.11e-008 TO 4.1169e-008
delay_9=1.48758e-011 FROM 4.61e-008 TO 4.61149e-008
delay_10=1.00172e-008 FROM 5.11e-008 TO 6.11172e-008
delay_11=3.34294e-011 FROM 5.61e-008 TO 5.61334e-008
delay_12=1.72353e-011 FROM 6.11e-008 TO 6.11172e-008
delay_13=1.52193e-011 FROM 6.61e-008 TO 6.61152e-008
delay_14=8.8165e-011 FROM 7.11e-008 TO 7.11882e-008
delay_15=5.0022e-011 FROM 7.61e-008 TO 7.615e-008
delay_16=1.59377e-011 FROM 8.11e-008 TO 8.11159e-008
delay_17=1.78113e-011 FROM 8.61e-008 TO 8.61178e-008
delay_18=1.00416e-008 FROM 9.11e-008 TO 1.01142e-007
delay_19=1.67277e-011 FROM 9.61e-008 TO 9.61167e-008
delay_20=4.16427e-011 FROM 1.011e-007 TO 1.01142e-007
delay_21=2.50711e-008 FROM 1.061e-007 TO 1.31171e-007
delay_22=4.19805e-011 FROM 1.111e-007 TO 1.11142e-007
delay_23=3.00419e-008 FROM 1.161e-007 TO 1.46142e-007
delay_24=2.50419e-008 FROM 1.211e-007 TO 1.46142e-007
delay_25=2.00419e-008 FROM 1.261e-007 TO 1.46142e-007
delay_26=7.11342e-011 FROM 1.311e-007 TO 1.31171e-007
delay_27=2.00294e-008 FROM 1.361e-007 TO 1.56129e-007
delay_28=1.50294e-008 FROM 1.411e-007 TO 1.56129e-007
delay_29=4.19226e-011 FROM 1.461e-007 TO 1.46142e-007
delay_30=5.10586e-009 FROM 1.511e-007 TO 1.56206e-007
delay_31=1.05856e-010 FROM 1.561e-007 TO 1.56206e-007
delay_32=1.89496e-011 FROM 1.611e-007 TO 1.61119e-007
delay_33=7.86798e-011 FROM 1.661e-007 TO 1.66179e-007
delay_34=1.00161e-008 FROM 1.711e-007 TO 1.81116e-007
delay_35=4.9351e-011 FROM 1.761e-007 TO 1.76149e-007
delay_36=1.61422e-011 FROM 1.811e-007 TO 1.81116e-007
delay_37=2.50182e-008 FROM 1.861e-007 TO 2.11118e-007
delay_38=2.00182e-008 FROM 1.911e-007 TO 2.11118e-007
delay_39=5.97993e-011 FROM 1.961e-007 TO 1.9616e-007
delay_40=1.01006e-008 FROM 2.011e-007 TO 2.11201e-007
delay_41=5.10057e-009 FROM 2.061e-007 TO 2.11201e-007
delay_42=1.00575e-010 FROM 2.111e-007 TO 2.11201e-007
delay_43=2.00296e-008 FROM 2.161e-007 TO 2.3613e-007
delay_44=1.50296e-008 FROM 2.211e-007 TO 2.3613e-007
delay_45=1.00296e-008 FROM 2.261e-007 TO 2.3613e-007
delay_46=5.61189e-011 FROM 2.311e-007 TO 2.31156e-007
delay_47=1.05874e-010 FROM 2.361e-007 TO 2.36206e-007
delay_48=7.28242e-011 FROM 2.411e-007 TO 2.41173e-007
delay_49=2.5029e-008 FROM 2.461e-007 TO 2.71129e-007
delay_50=2.0029e-008 FROM 2.511e-007 TO 2.71129e-007
delay_51=2.98874e-011 FROM 2.561e-007 TO 2.5613e-007
delay_52=2.00303e-008 FROM 2.611e-007 TO 2.8113e-007
delay_53=1.50303e-008 FROM 2.661e-007 TO 2.8113e-007
delay_54=2.89825e-011 FROM 2.711e-007 TO 2.71129e-007

Measurement "delay_55" FAIL'ed
delay_56=3.03272e-011 FROM 2.811e-007 TO 2.8113e-007


Date: Wed Jan 13 11:26:09 2021
Total elapsed time: 23.068 seconds.

tnom = 27
temp = 27
method = modified trap
totiter = 5443
traniter = 5443
tranpoints = 1503
accept = 1496
rejected = 7
matrix size = 1559
fillins = 2298
solver = Normal
Thread vector: 5481.5/2730.0[4] 412.8/1677.6[1] 171.3/900.2[1] 66.6/754.7[1]  2592/500
Matrix Compiler1: 322.09 KB object code size  709.2/287.5/[176.9]
Matrix Compiler2: 203.50 KB object code size  187.5/202.4/[101.8]

