Circuit: *** SPICE deck for cell sta_char_fa_vmerge2{sch} from library project_kansu3

Vin2: Removing PWL point (1.2e-009,0)
Vin2: Removing PWL point (1.6e-008,0)
Vin2: Removing PWL point (3.1e-008,0)
Vin2: Removing PWL point (4.1e-008,1)
Vin2: Removing PWL point (5.6e-008,0)
Vin2: Removing PWL point (7.1e-008,0)
Vin2: Removing PWL point (8.6e-008,0)
Vin2: Removing PWL point (9.6e-008,1)
Vin2: Removing PWL point (1.11e-007,0)
Vin2: Removing PWL point (1.31e-007,1)
Vin2: Removing PWL point (1.46e-007,1)
Vin2: Removing PWL point (1.56e-007,0)
Vin2: Removing PWL point (1.76e-007,1)
Vin2: Removing PWL point (1.91e-007,0)
Vin2: Removing PWL point (2.11e-007,1)
Vin2: Removing PWL point (2.26e-007,1)
Vin2: Removing PWL point (2.36e-007,0)
Vin2: Removing PWL point (2.51e-007,0)
Vin2: Removing PWL point (2.61e-007,1)
Vin2: Removing PWL point (2.76e-007,0)
Vin1: Removing PWL point (1.2e-009,0)
Vin1: Removing PWL point (2.1e-008,1)
Vin1: Removing PWL point (5.6e-008,0)
Vin1: Removing PWL point (7.6e-008,1)
Vin1: Removing PWL point (1.11e-007,0)
Vin1: Removing PWL point (1.31e-007,0)
Vin1: Removing PWL point (1.46e-007,0)
Vin1: Removing PWL point (1.61e-007,1)
Vin1: Removing PWL point (2.01e-007,1)
Vin1: Removing PWL point (2.16e-007,0)
Vin1: Removing PWL point (2.46e-007,0)
Vin0: Removing PWL point (1.2e-009,0)
Vin0: Removing PWL point (6.1e-008,1)
Vin0: Removing PWL point (1.21e-007,1)
Vin0: Removing PWL point (1.36e-007,0)
WARNING: Node DUT_1_CI is floating.
WARNING: Node DUT_1_A is floating.

Per .tran options, skipping operating point for transient analysis.

delay_1=2.0011e-008 FROM 6.1e-009 TO 2.6111e-008
delay_2=1.5011e-008 FROM 1.11e-008 TO 2.6111e-008
delay_3=1.0011e-008 FROM 1.61e-008 TO 2.6111e-008
delay_4=2.16698e-011 FROM 2.11e-008 TO 2.11217e-008
delay_5=1.09822e-011 FROM 2.61e-008 TO 2.6111e-008
delay_6=1.00443e-008 FROM 3.11e-008 TO 4.11443e-008
delay_7=1.9288e-011 FROM 3.61e-008 TO 3.61193e-008
delay_8=4.42861e-011 FROM 4.11e-008 TO 4.11443e-008
delay_9=1.51566e-011 FROM 4.61e-008 TO 4.61152e-008
delay_10=3.88568e-012 FROM 5.11e-008 TO 5.11039e-008
delay_11=1.00088e-008 FROM 5.61e-008 TO 6.61088e-008
delay_12=2.28008e-011 FROM 6.11e-008 TO 6.11228e-008
delay_13=8.81765e-012 FROM 6.61e-008 TO 6.61088e-008
delay_14=5.94179e-011 FROM 7.11e-008 TO 7.11594e-008
delay_15=1.50044e-008 FROM 7.61e-008 TO 9.11044e-008
delay_16=1.00044e-008 FROM 8.11e-008 TO 9.11044e-008
delay_17=1.19647e-011 FROM 8.61e-008 TO 8.6112e-008
delay_18=4.43321e-012 FROM 9.11e-008 TO 9.11044e-008
delay_19=2.00194e-008 FROM 9.61e-008 TO 1.16119e-007
delay_20=1.50194e-008 FROM 1.011e-007 TO 1.16119e-007
delay_21=1.88832e-011 FROM 1.061e-007 TO 1.06119e-007
delay_22=2.00385e-008 FROM 1.111e-007 TO 1.31139e-007
delay_23=1.94032e-011 FROM 1.161e-007 TO 1.16119e-007
delay_24=2.50155e-008 FROM 1.211e-007 TO 1.46115e-007
delay_25=2.00155e-008 FROM 1.261e-007 TO 1.46115e-007
delay_26=3.85121e-011 FROM 1.311e-007 TO 1.31139e-007
delay_27=1.50033e-008 FROM 1.361e-007 TO 1.51103e-007
delay_28=1.00033e-008 FROM 1.411e-007 TO 1.51103e-007
delay_29=1.54965e-011 FROM 1.461e-007 TO 1.46115e-007
delay_30=3.32722e-012 FROM 1.511e-007 TO 1.51103e-007
delay_31=7.17898e-011 FROM 1.561e-007 TO 1.56172e-007
delay_32=1.17205e-011 FROM 1.611e-007 TO 1.61112e-007
delay_33=4.83528e-011 FROM 1.661e-007 TO 1.66148e-007
delay_34=2.50202e-008 FROM 1.711e-007 TO 1.9612e-007
delay_35=2.00202e-008 FROM 1.761e-007 TO 1.9612e-007
delay_36=1.50202e-008 FROM 1.811e-007 TO 1.9612e-007
delay_37=1.00202e-008 FROM 1.861e-007 TO 1.9612e-007
delay_38=3.17126e-013 FROM 1.911e-007 TO 1.911e-007
delay_39=2.01842e-011 FROM 1.961e-007 TO 1.9612e-007
delay_40=1.95784e-011 FROM 2.011e-007 TO 2.0112e-007
delay_41=1.04018e-012 FROM 2.061e-007 TO 2.06101e-007
delay_42=6.27749e-011 FROM 2.111e-007 TO 2.11163e-007
delay_43=1.50199e-008 FROM 2.161e-007 TO 2.3112e-007
delay_44=1.00199e-008 FROM 2.211e-007 TO 2.3112e-007
delay_45=4.66859e-012 FROM 2.261e-007 TO 2.26105e-007
delay_46=1.98813e-011 FROM 2.311e-007 TO 2.3112e-007
delay_47=6.34006e-011 FROM 2.361e-007 TO 2.36163e-007
delay_48=4.89726e-011 FROM 2.411e-007 TO 2.41149e-007
delay_49=2.50117e-008 FROM 2.461e-007 TO 2.71112e-007
delay_50=2.00117e-008 FROM 2.511e-007 TO 2.71112e-007
delay_51=1.4213e-011 FROM 2.561e-007 TO 2.56114e-007
delay_52=2.00238e-008 FROM 2.611e-007 TO 2.81124e-007
delay_53=1.50238e-008 FROM 2.661e-007 TO 2.81124e-007
delay_54=1.17302e-011 FROM 2.711e-007 TO 2.71112e-007

Measurement "delay_55" FAIL'ed
delay_56=2.3804e-011 FROM 2.811e-007 TO 2.81124e-007


Date: Tue Jan 12 19:40:34 2021
Total elapsed time: 4.908 seconds.

tnom = 27
temp = 27
method = modified trap
totiter = 5760
traniter = 5760
tranpoints = 1642
accept = 1592
rejected = 50
matrix size = 235
fillins = 16
solver = Normal
Thread vector: 538.3/403.3[4] 61.2/69.7[1] 18.1/152.2[1] 7.7/83.5[1]  2592/500
Matrix Compiler1: 37.87 KB object code size  44.3/21.9/[14.3]
Matrix Compiler2: 30.79 KB object code size  23.6/18.8/[10.6]

