Circuit: *** SPICE deck for cell sta_char_fa_vmerge1{sch} from library project_kansu3

Vin2: Removing PWL point (1.2e-009,0)
Vin2: Removing PWL point (1.6e-008,0)
Vin2: Removing PWL point (3.1e-008,0)
Vin2: Removing PWL point (4.1e-008,1)
Vin2: Removing PWL point (5.6e-008,0)
Vin2: Removing PWL point (7.1e-008,0)
Vin2: Removing PWL point (8.6e-008,0)
Vin2: Removing PWL point (9.6e-008,1)
Vin2: Removing PWL point (1.11e-007,0)
Vin2: Removing PWL point (1.31e-007,1)
Vin2: Removing PWL point (1.46e-007,1)
Vin2: Removing PWL point (1.56e-007,0)
Vin2: Removing PWL point (1.76e-007,1)
Vin2: Removing PWL point (1.91e-007,0)
Vin2: Removing PWL point (2.11e-007,1)
Vin2: Removing PWL point (2.26e-007,1)
Vin2: Removing PWL point (2.36e-007,0)
Vin2: Removing PWL point (2.51e-007,0)
Vin2: Removing PWL point (2.61e-007,1)
Vin2: Removing PWL point (2.76e-007,0)
Vin1: Removing PWL point (1.2e-009,0)
Vin1: Removing PWL point (2.1e-008,1)
Vin1: Removing PWL point (5.6e-008,0)
Vin1: Removing PWL point (7.6e-008,1)
Vin1: Removing PWL point (1.11e-007,0)
Vin1: Removing PWL point (1.31e-007,0)
Vin1: Removing PWL point (1.46e-007,0)
Vin1: Removing PWL point (1.61e-007,1)
Vin1: Removing PWL point (2.01e-007,1)
Vin1: Removing PWL point (2.16e-007,0)
Vin1: Removing PWL point (2.46e-007,0)
Vin0: Removing PWL point (1.2e-009,0)
Vin0: Removing PWL point (6.1e-008,1)
Vin0: Removing PWL point (1.21e-007,1)
Vin0: Removing PWL point (1.36e-007,0)
WARNING: Node DUT_1_CI is floating.
WARNING: Node DUT_1_A is floating.

Per .tran options, skipping operating point for transient analysis.

delay_1=2.0014e-008 FROM 6.1e-009 TO 2.6114e-008
delay_2=1.5014e-008 FROM 1.11e-008 TO 2.6114e-008
delay_3=1.0014e-008 FROM 1.61e-008 TO 2.6114e-008
delay_4=1.22979e-011 FROM 2.11e-008 TO 2.11123e-008
delay_5=1.40338e-011 FROM 2.61e-008 TO 2.6114e-008
delay_6=1.00443e-008 FROM 3.11e-008 TO 4.11443e-008
delay_7=1.92881e-011 FROM 3.61e-008 TO 3.61193e-008
delay_8=4.42509e-011 FROM 4.11e-008 TO 4.11443e-008
delay_9=1.39999e-011 FROM 4.61e-008 TO 4.6114e-008
delay_10=-1.05629e-011 FROM 5.11e-008 TO 5.10894e-008
delay_11=1.00142e-008 FROM 5.61e-008 TO 6.61142e-008
delay_12=2.21102e-011 FROM 6.11e-008 TO 6.11221e-008
delay_13=1.42191e-011 FROM 6.61e-008 TO 6.61142e-008
delay_14=5.73416e-011 FROM 7.11e-008 TO 7.11573e-008
delay_15=1.50044e-008 FROM 7.61e-008 TO 9.11044e-008
delay_16=1.00044e-008 FROM 8.11e-008 TO 9.11044e-008
delay_17=1.07166e-011 FROM 8.61e-008 TO 8.61107e-008
delay_18=4.43298e-012 FROM 9.11e-008 TO 9.11044e-008
delay_19=2.00355e-008 FROM 9.61e-008 TO 1.16135e-007
delay_20=1.50355e-008 FROM 1.011e-007 TO 1.16135e-007
delay_21=1.88805e-011 FROM 1.061e-007 TO 1.06119e-007
delay_22=2.00385e-008 FROM 1.111e-007 TO 1.31138e-007
delay_23=3.54712e-011 FROM 1.161e-007 TO 1.16135e-007
delay_24=2.50154e-008 FROM 1.211e-007 TO 1.46115e-007
delay_25=2.00154e-008 FROM 1.261e-007 TO 1.46115e-007
delay_26=3.84654e-011 FROM 1.311e-007 TO 1.31138e-007
delay_27=1.50033e-008 FROM 1.361e-007 TO 1.51103e-007
delay_28=1.00033e-008 FROM 1.411e-007 TO 1.51103e-007
delay_29=1.53868e-011 FROM 1.461e-007 TO 1.46115e-007
delay_30=3.32684e-012 FROM 1.511e-007 TO 1.51103e-007
delay_31=7.72802e-011 FROM 1.561e-007 TO 1.56177e-007
delay_32=1.17083e-011 FROM 1.611e-007 TO 1.61112e-007
delay_33=5.00229e-011 FROM 1.661e-007 TO 1.6615e-007
delay_34=2.50195e-008 FROM 1.711e-007 TO 1.9612e-007
delay_35=2.00195e-008 FROM 1.761e-007 TO 1.9612e-007
delay_36=1.50195e-008 FROM 1.811e-007 TO 1.9612e-007
delay_37=1.00195e-008 FROM 1.861e-007 TO 1.9612e-007
delay_38=3.15109e-013 FROM 1.911e-007 TO 1.911e-007
delay_39=1.95451e-011 FROM 1.961e-007 TO 1.9612e-007
delay_40=1.95515e-011 FROM 2.011e-007 TO 2.0112e-007
delay_41=1.03748e-012 FROM 2.061e-007 TO 2.06101e-007
delay_42=6.43419e-011 FROM 2.111e-007 TO 2.11164e-007
delay_43=1.50199e-008 FROM 2.161e-007 TO 2.3112e-007
delay_44=1.00199e-008 FROM 2.211e-007 TO 2.3112e-007
delay_45=4.66629e-012 FROM 2.261e-007 TO 2.26105e-007
delay_46=1.98626e-011 FROM 2.311e-007 TO 2.3112e-007
delay_47=7.38612e-011 FROM 2.361e-007 TO 2.36174e-007
delay_48=4.89454e-011 FROM 2.411e-007 TO 2.41149e-007
delay_49=2.50192e-008 FROM 2.461e-007 TO 2.71119e-007
delay_50=2.00192e-008 FROM 2.511e-007 TO 2.71119e-007
delay_51=2.14442e-011 FROM 2.561e-007 TO 2.56121e-007
delay_52=2.002e-008 FROM 2.611e-007 TO 2.8112e-007
delay_53=1.502e-008 FROM 2.661e-007 TO 2.8112e-007
delay_54=1.92005e-011 FROM 2.711e-007 TO 2.71119e-007

Measurement "delay_55" FAIL'ed
delay_56=1.99992e-011 FROM 2.811e-007 TO 2.8112e-007


Date: Tue Jan 12 19:38:02 2021
Total elapsed time: 6.113 seconds.

tnom = 27
temp = 27
method = modified trap
totiter = 6699
traniter = 6699
tranpoints = 1791
accept = 1705
rejected = 86
matrix size = 372
fillins = 30
solver = Normal
Thread vector: 966.0/707.4[4] 105.4/73.9[4] 99.8/36.0[4] 12.6/348.0[1]  2592/500
Matrix Compiler1: 59.53 KB object code size  81.2/43.1/[43.4]
Matrix Compiler2: 48.23 KB object code size  33.5/39.0/[22.0]

