Circuit: *** SPICE deck for cell sta_char_fa_vmerge1{sch} from library project

Vin2: Removing PWL point (1.2e-009,0)
Vin2: Removing PWL point (1.6e-008,0)
Vin2: Removing PWL point (3.1e-008,0)
Vin2: Removing PWL point (4.1e-008,1)
Vin2: Removing PWL point (5.6e-008,0)
Vin2: Removing PWL point (7.1e-008,0)
Vin2: Removing PWL point (8.6e-008,0)
Vin2: Removing PWL point (9.6e-008,1)
Vin2: Removing PWL point (1.11e-007,0)
Vin2: Removing PWL point (1.31e-007,1)
Vin2: Removing PWL point (1.46e-007,1)
Vin2: Removing PWL point (1.56e-007,0)
Vin2: Removing PWL point (1.76e-007,1)
Vin2: Removing PWL point (1.91e-007,0)
Vin2: Removing PWL point (2.11e-007,1)
Vin2: Removing PWL point (2.26e-007,1)
Vin2: Removing PWL point (2.36e-007,0)
Vin2: Removing PWL point (2.51e-007,0)
Vin2: Removing PWL point (2.61e-007,1)
Vin2: Removing PWL point (2.76e-007,0)
Vin1: Removing PWL point (1.2e-009,0)
Vin1: Removing PWL point (2.1e-008,1)
Vin1: Removing PWL point (5.6e-008,0)
Vin1: Removing PWL point (7.6e-008,1)
Vin1: Removing PWL point (1.11e-007,0)
Vin1: Removing PWL point (1.31e-007,0)
Vin1: Removing PWL point (1.46e-007,0)
Vin1: Removing PWL point (1.61e-007,1)
Vin1: Removing PWL point (2.01e-007,1)
Vin1: Removing PWL point (2.16e-007,0)
Vin1: Removing PWL point (2.46e-007,0)
Vin0: Removing PWL point (1.2e-009,0)
Vin0: Removing PWL point (6.1e-008,1)
Vin0: Removing PWL point (1.21e-007,1)
Vin0: Removing PWL point (1.36e-007,0)
WARNING: Node DUT_1_CI is floating.
WARNING: Node DUT_1_A is floating.

Per .tran options, skipping operating point for transient analysis.
