Circuit: *** SPICE deck for cell csm_non_pipelined{sch} from library project_kansu3

Per .tran options, skipping operating point for transient analysis.

Date: Sat Jan 09 10:34:33 2021
Total elapsed time: 48.029 seconds.

tnom = 27
temp = 27
method = modified trap
totiter = 4135
traniter = 4135
tranpoints = 1196
accept = 1155
rejected = 41
matrix size = 8521
fillins = 1926
solver = Normal
Thread vector: 16536.9/12053.2[4] 2489.7/890.8[4] 933.0/551.8[4] 392.9/355.3[2]  2592/500
Matrix Compiler1: 1.63 MB object code size  4065.4/1948.3/[944.2]
Matrix Compiler2: 1.12 MB object code size  1785.8/1730.4/[627.0]

