Circuit: * Z:\home\vasid\.git\courses\dic_proj\lib\exp\kansu\Draft1.asc

Fatal Error: V1: Could not open wavefile: /home/vasid/.git/courses/dic_proj/spice_scripts/fa_characterize/fa_char_inputs0.wav

