Circuit: *** SPICE deck for cell fa_char_sta{sch} from library project_kansu3

Vin2: Removing PWL point (1.2e-009,0)
Vin2: Removing PWL point (6.1e-008,1)
Vin2: Removing PWL point (1.21e-007,1)
Vin2: Removing PWL point (1.36e-007,0)
Vin2: Removing PWL point (2.36e-007,0)
Vin2: Removing PWL point (2.51e-007,0)
Vin2: Removing PWL point (2.86e-007,0)
Vin2: Removing PWL point (3.06e-007,1)
Vin2: Removing PWL point (3.26e-007,0)
Vin1: Removing PWL point (1.2e-009,0)
Vin1: Removing PWL point (2.1e-008,1)
Vin1: Removing PWL point (5.6e-008,0)
Vin1: Removing PWL point (7.6e-008,1)
Vin1: Removing PWL point (1.11e-007,0)
Vin1: Removing PWL point (1.31e-007,0)
Vin1: Removing PWL point (1.46e-007,0)
Vin1: Removing PWL point (1.61e-007,1)
Vin1: Removing PWL point (2.01e-007,1)
Vin1: Removing PWL point (2.16e-007,0)
Vin1: Removing PWL point (2.36e-007,0)
Vin1: Removing PWL point (2.86e-007,1)
Vin1: Removing PWL point (3.06e-007,0)
Vin1: Removing PWL point (3.16e-007,1)
Vin1: Removing PWL point (3.26e-007,0)
Vin1: Removing PWL point (3.36e-007,1)
Vin0: Removing PWL point (1.2e-009,0)
Vin0: Removing PWL point (1.6e-008,0)
Vin0: Removing PWL point (3.1e-008,0)
Vin0: Removing PWL point (4.1e-008,1)
Vin0: Removing PWL point (5.6e-008,0)
Vin0: Removing PWL point (7.1e-008,0)
Vin0: Removing PWL point (8.6e-008,0)
Vin0: Removing PWL point (9.6e-008,1)
Vin0: Removing PWL point (1.11e-007,0)
Vin0: Removing PWL point (1.31e-007,1)
Vin0: Removing PWL point (1.46e-007,1)
Vin0: Removing PWL point (1.56e-007,0)
Vin0: Removing PWL point (1.76e-007,1)
Vin0: Removing PWL point (1.91e-007,0)
Vin0: Removing PWL point (2.11e-007,1)
Vin0: Removing PWL point (2.26e-007,1)
Vin0: Removing PWL point (2.56e-007,0)
Vin0: Removing PWL point (2.71e-007,1)
WARNING: Node CO_BAR_LOAD_B is floating.
WARNING: Node CO_BAR_LOAD_CI is floating.
WARNING: Node S_BAR_LOAD_B is floating.
WARNING: Node S_BAR_LOAD_A is floating.

Per .tran options, skipping operating point for transient analysis.

delay_1=1.15827e-011 FROM 6.1e-009 TO 6.11158e-009
delay_2=3.3341e-011 FROM 1.11e-008 TO 1.11333e-008
delay_3=1.20243e-011 FROM 1.61e-008 TO 1.6112e-008
delay_4=2.88959e-011 FROM 2.11e-008 TO 2.11289e-008
delay_5=3.49769e-011 FROM 2.61e-008 TO 2.6135e-008
delay_6=2.80217e-011 FROM 3.11e-008 TO 3.1128e-008
delay_7=1.17044e-010 FROM 3.61e-008 TO 3.6217e-008
delay_8=5.58408e-011 FROM 4.11e-008 TO 4.11558e-008
delay_9=2.27279e-011 FROM 4.61e-008 TO 4.61227e-008
delay_10=1.25673e-010 FROM 5.11e-008 TO 5.12257e-008
delay_11=1.11328e-011 FROM 5.61e-008 TO 5.61111e-008
delay_12=3.23349e-011 FROM 6.11e-008 TO 6.11323e-008
delay_13=3.54153e-011 FROM 6.61e-008 TO 6.61354e-008
delay_14=6.27479e-011 FROM 7.11e-008 TO 7.11627e-008
delay_15=4.17849e-011 FROM 7.61e-008 TO 7.61418e-008
delay_16=1.06821e-011 FROM 8.11e-008 TO 8.11107e-008
delay_17=2.92877e-011 FROM 8.61e-008 TO 8.61293e-008
delay_18=9.92444e-009 FROM 9.11e-008 TO 1.01024e-007
delay_19=1.06691e-011 FROM 9.61e-008 TO 9.61107e-008
delay_20=2.7991e-011 FROM 1.011e-007 TO 1.01128e-007
delay_21=9.94826e-009 FROM 1.061e-007 TO 1.16048e-007
delay_22=2.65786e-011 FROM 1.111e-007 TO 1.11127e-007
delay_23=1.04893e-010 FROM 1.161e-007 TO 1.16205e-007
delay_24=1.11028e-010 FROM 1.211e-007 TO 1.21211e-007
delay_25=5.19021e-011 FROM 1.261e-007 TO 1.26152e-007
delay_26=6.02289e-011 FROM 1.311e-007 TO 1.3116e-007
delay_27=1.49717e-008 FROM 1.361e-007 TO 1.51072e-007
delay_28=9.9717e-009 FROM 1.411e-007 TO 1.51072e-007
delay_29=2.73017e-011 FROM 1.461e-007 TO 1.46127e-007
delay_30=9.90829e-011 FROM 1.511e-007 TO 1.51199e-007
delay_31=1.5008e-010 FROM 1.561e-007 TO 1.5625e-007
delay_32=1.04858e-011 FROM 1.611e-007 TO 1.6111e-007
delay_33=6.61339e-011 FROM 1.661e-007 TO 1.66166e-007
delay_34=4.61775e-011 FROM 1.711e-007 TO 1.71146e-007
delay_35=3.70491e-011 FROM 1.761e-007 TO 1.76137e-007
delay_36=9.82701e-012 FROM 1.811e-007 TO 1.8111e-007
delay_37=1.01394e-010 FROM 1.861e-007 TO 1.86201e-007
delay_38=1.13777e-010 FROM 1.911e-007 TO 1.91214e-007
delay_39=4.99827e-011 FROM 1.961e-007 TO 1.9615e-007
delay_40=3.49211e-008 FROM 2.011e-007 TO 2.36021e-007
delay_41=2.99211e-008 FROM 2.061e-007 TO 2.36021e-007
delay_42=2.49211e-008 FROM 2.111e-007 TO 2.36021e-007
delay_43=1.99211e-008 FROM 2.161e-007 TO 2.36021e-007
delay_44=1.49211e-008 FROM 2.211e-007 TO 2.36021e-007
delay_45=9.92111e-009 FROM 2.261e-007 TO 2.36021e-007
delay_46=7.0173e-012 FROM 2.311e-007 TO 2.31107e-007
delay_47=1.23029e-011 FROM 2.361e-007 TO 2.36112e-007
delay_48=6.50928e-011 FROM 2.411e-007 TO 2.41165e-007
delay_49=6.87433e-011 FROM 2.461e-007 TO 2.46169e-007
delay_50=2.99228e-008 FROM 2.511e-007 TO 2.81023e-007
delay_51=2.49228e-008 FROM 2.561e-007 TO 2.81023e-007
delay_52=1.99228e-008 FROM 2.611e-007 TO 2.81023e-007
delay_53=3.8791e-011 FROM 2.661e-007 TO 2.66139e-007
delay_54=1.509e-008 FROM 2.711e-007 TO 2.8619e-007
delay_55=1.009e-008 FROM 2.761e-007 TO 2.8619e-007
delay_56=1.41476e-011 FROM 2.811e-007 TO 2.81114e-007
delay_57=1.81945e-011 FROM 2.861e-007 TO 2.86118e-007
delay_58=1.32442e-011 FROM 2.911e-007 TO 2.91113e-007
delay_59=3.31007e-011 FROM 2.961e-007 TO 2.96133e-007
delay_60=1.42211e-011 FROM 3.011e-007 TO 3.01114e-007
delay_61=2.30076e-011 FROM 3.061e-007 TO 3.06123e-007
delay_62=9.60136e-011 FROM 3.111e-007 TO 3.11196e-007
delay_63=4.1736e-011 FROM 3.161e-007 TO 3.16142e-007
delay_64=-7.99279e-013 FROM 3.211e-007 TO 3.21099e-007
delay_65=1.1557e-011 FROM 3.261e-007 TO 3.26112e-007

Measurement "delay_66" FAIL'ed
delay_67=3.32897e-011 FROM 3.361e-007 TO 3.36133e-007


Date: Sat Jan 09 22:57:58 2021
Total elapsed time: 3.130 seconds.

tnom = 27
temp = 27
method = modified trap
totiter = 6555
traniter = 6555
tranpoints = 1796
accept = 1741
rejected = 55
matrix size = 336
fillins = 32
solver = Normal
Thread vector: 711.6/288.8[4] 84.6/49.9[4] 28.2/11.9[4] 10.5/11.5[1]  2592/500
Matrix Compiler1: 58.54 KB object code size  75.2/40.8/[21.0]
Matrix Compiler2: 44.52 KB object code size  31.7/30.0/[16.2]

