Circuit: *** SPICE deck for cell sta_char_ff_x7{sch} from library project_kansu3

Per .tran options, skipping operating point for transient analysis.

holdtime=2.8e-011 FROM 1.85512e-006 TO 1.85515e-006
setuptime=2.2e-011 FROM 2.04313e-006 TO 2.04315e-006


Date: Sun Jan 10 23:39:30 2021
Total elapsed time: 581.760 seconds.

tnom = 27
temp = 27
method = modified trap
totiter = 588493
traniter = 588493
tranpoints = 162494
accept = 127750
rejected = 34744
matrix size = 332
fillins = 12
solver = Normal
Thread vector: 780.5/313.5[4] 96.8/65.5[2] 25.4/480.5[1] 10.8/33.2[1]  2592/500
Matrix Compiler1: 47.63 KB object code size  63.4/29.8/[19.0]
Matrix Compiler2: 41.20 KB object code size  29.3/28.3/[15.8]

