Circuit: *** SPICE deck for cell sta_char_and{sch} from library project_kansu3

Vin1: Removing PWL point (1.2e-009,0)
Vin1: Removing PWL point (2.1e-008,1)
Vin1: Removing PWL point (5.6e-008,0)
Vin1: Removing PWL point (7.6e-008,1)
Vin1: Removing PWL point (8.6e-008,0)
Vin0: Removing PWL point (1.2e-009,0)
Vin0: Removing PWL point (1.6e-008,0)
Vin0: Removing PWL point (3.1e-008,0)
Vin0: Removing PWL point (4.1e-008,1)
WARNING: Node FA_C3X_S@0_B is floating.
WARNING: Node FA_C3X_S@0_A is floating.

Per .tran options, skipping operating point for transient analysis.

delay_1=2.00848e-008 FROM 6.1e-009 TO 2.61848e-008
delay_2=1.50848e-008 FROM 1.11e-008 TO 2.61848e-008
delay_3=1.00848e-008 FROM 1.61e-008 TO 2.61848e-008
delay_4=1.01931e-011 FROM 2.11e-008 TO 2.11102e-008
delay_5=1.38956e-011 FROM 2.61e-008 TO 2.61139e-008
delay_6=1.00842e-008 FROM 3.11e-008 TO 4.11842e-008
delay_7=4.729e-011 FROM 3.61e-008 TO 3.61473e-008
delay_8=1.32256e-011 FROM 4.11e-008 TO 4.11132e-008
delay_9=2.22881e-011 FROM 4.61e-008 TO 4.61223e-008
delay_10=1.18055e-011 FROM 5.11e-008 TO 5.11118e-008
delay_11=2.50828e-008 FROM 5.61e-008 TO 8.11828e-008
delay_12=2.00828e-008 FROM 6.11e-008 TO 8.11828e-008
delay_13=1.50828e-008 FROM 6.61e-008 TO 8.11828e-008
delay_14=1.00828e-008 FROM 7.11e-008 TO 8.11828e-008
delay_15=1.02355e-011 FROM 7.61e-008 TO 7.61102e-008
delay_16=1.1799e-011 FROM 8.11e-008 TO 8.11118e-008

Measurement "delay_17" FAIL'ed


Date: Sun Jan 10 22:03:27 2021
Total elapsed time: 2.728 seconds.

tnom = 27
temp = 27
method = modified trap
totiter = 3157
traniter = 3157
tranpoints = 1165
accept = 1159
rejected = 6
matrix size = 143
fillins = 16
solver = Normal
Matrix Compiler1: 25.37 KB object code size  30.0/16.3/[9.6]
Matrix Compiler2: 18.55 KB object code size  13.1/12.8/[7.2]

