Circuit: *** SPICE deck for cell sta_char_ff_vmerge{sch} from library project_kansu3

WARNING: Node FA_C3X_S@0_B is floating.
WARNING: Node FA_C3X_S@0_A is floating.

Per .tran options, skipping operating point for transient analysis.

holdtime=-2.4e-011 FROM 1.84715e-006 TO 1.84713e-006
setuptime=2.2e-011 FROM 2.04313e-006 TO 2.04315e-006
cqdelay_rise=3.04032e-011 FROM 1.115e-008 TO 1.11804e-008
cqdelay_fall=2.781e-011 FROM 1.515e-008 TO 1.51778e-008


Date: Mon Jan 11 00:35:34 2021
Total elapsed time: 137.764 seconds.

tnom = 27
temp = 27
method = modified trap
totiter = 153403
traniter = 153403
tranpoints = 42614
accept = 33464
rejected = 9150
matrix size = 262
fillins = 36
solver = Normal
Thread vector: 767.5/347.0[4] 106.9/46.0[4] 23.4/16.1[4] 8.7/10.0[1]  2592/500
Matrix Compiler1: 45.28 KB object code size  99.0/36.4/[16.8]
Matrix Compiler2: 34.12 KB object code size  40.6/23.6/[12.9]

