Circuit: *** SPICE deck for cell sta_char_fa_vmerge2{sch} from library project_kansu3

Vin2: Removing PWL point (1.2e-009,0)
Vin2: Removing PWL point (6.1e-008,1)
Vin2: Removing PWL point (1.21e-007,1)
Vin2: Removing PWL point (1.36e-007,0)
Vin2: Removing PWL point (2.36e-007,0)
Vin2: Removing PWL point (2.51e-007,0)
Vin2: Removing PWL point (2.86e-007,0)
Vin2: Removing PWL point (3.06e-007,1)
Vin2: Removing PWL point (3.26e-007,0)
Vin1: Removing PWL point (1.2e-009,0)
Vin1: Removing PWL point (2.1e-008,1)
Vin1: Removing PWL point (5.6e-008,0)
Vin1: Removing PWL point (7.6e-008,1)
Vin1: Removing PWL point (1.11e-007,0)
Vin1: Removing PWL point (1.31e-007,0)
Vin1: Removing PWL point (1.46e-007,0)
Vin1: Removing PWL point (1.61e-007,1)
Vin1: Removing PWL point (2.01e-007,1)
Vin1: Removing PWL point (2.16e-007,0)
Vin1: Removing PWL point (2.36e-007,0)
Vin1: Removing PWL point (2.86e-007,1)
Vin1: Removing PWL point (3.06e-007,0)
Vin1: Removing PWL point (3.16e-007,1)
Vin1: Removing PWL point (3.26e-007,0)
Vin1: Removing PWL point (3.36e-007,1)
Vin0: Removing PWL point (1.2e-009,0)
Vin0: Removing PWL point (1.6e-008,0)
Vin0: Removing PWL point (3.1e-008,0)
Vin0: Removing PWL point (4.1e-008,1)
Vin0: Removing PWL point (5.6e-008,0)
Vin0: Removing PWL point (7.1e-008,0)
Vin0: Removing PWL point (8.6e-008,0)
Vin0: Removing PWL point (9.6e-008,1)
Vin0: Removing PWL point (1.11e-007,0)
Vin0: Removing PWL point (1.31e-007,1)
Vin0: Removing PWL point (1.46e-007,1)
Vin0: Removing PWL point (1.56e-007,0)
Vin0: Removing PWL point (1.76e-007,1)
Vin0: Removing PWL point (1.91e-007,0)
Vin0: Removing PWL point (2.11e-007,1)
Vin0: Removing PWL point (2.26e-007,1)
Vin0: Removing PWL point (2.56e-007,0)
Vin0: Removing PWL point (2.71e-007,1)
WARNING: Node DUT_1_CI is floating.
WARNING: Node DUT_1_A is floating.

Per .tran options, skipping operating point for transient analysis.

delay_1=2.00088e-008 FROM 6.1e-009 TO 2.61088e-008
delay_2=1.50088e-008 FROM 1.11e-008 TO 2.61088e-008
delay_3=1.00088e-008 FROM 1.61e-008 TO 2.61088e-008
delay_4=2.24295e-011 FROM 2.11e-008 TO 2.11224e-008
delay_5=8.81713e-012 FROM 2.61e-008 TO 2.61088e-008
delay_6=1.00385e-008 FROM 3.11e-008 TO 4.11385e-008
delay_7=1.94002e-011 FROM 3.61e-008 TO 3.61194e-008
delay_8=3.85269e-011 FROM 4.11e-008 TO 4.11385e-008
delay_9=1.54889e-011 FROM 4.61e-008 TO 4.61155e-008
delay_10=3.32712e-012 FROM 5.11e-008 TO 5.11033e-008
delay_11=1.0011e-008 FROM 5.61e-008 TO 6.6111e-008
delay_12=2.19479e-011 FROM 6.11e-008 TO 6.11219e-008
delay_13=1.09818e-011 FROM 6.61e-008 TO 6.6111e-008
delay_14=4.83452e-011 FROM 7.11e-008 TO 7.11483e-008
delay_15=1.5001e-008 FROM 7.61e-008 TO 9.1101e-008
delay_16=1.0001e-008 FROM 8.11e-008 TO 9.1101e-008
delay_17=1.17195e-011 FROM 8.61e-008 TO 8.61117e-008
delay_18=1.02657e-012 FROM 9.11e-008 TO 9.1101e-008
delay_19=2.00193e-008 FROM 9.61e-008 TO 1.16119e-007
delay_20=1.50193e-008 FROM 1.011e-007 TO 1.16119e-007
delay_21=1.96242e-011 FROM 1.061e-007 TO 1.0612e-007
delay_22=2.00443e-008 FROM 1.111e-007 TO 1.31144e-007
delay_23=1.92875e-011 FROM 1.161e-007 TO 1.16119e-007
delay_24=2.50175e-008 FROM 1.211e-007 TO 1.46117e-007
delay_25=2.00175e-008 FROM 1.261e-007 TO 1.46117e-007
delay_26=4.42818e-011 FROM 1.311e-007 TO 1.31144e-007
delay_27=1.50039e-008 FROM 1.361e-007 TO 1.51104e-007
delay_28=1.00039e-008 FROM 1.411e-007 TO 1.51104e-007
delay_29=1.74646e-011 FROM 1.461e-007 TO 1.46117e-007
delay_30=3.8855e-012 FROM 1.511e-007 TO 1.51104e-007
delay_31=6.34101e-011 FROM 1.561e-007 TO 1.56163e-007
delay_32=1.06988e-011 FROM 1.611e-007 TO 1.61111e-007
delay_33=5.48731e-011 FROM 1.661e-007 TO 1.66155e-007
delay_34=2.50202e-008 FROM 1.711e-007 TO 1.9612e-007
delay_35=2.00202e-008 FROM 1.761e-007 TO 1.9612e-007
delay_36=1.50202e-008 FROM 1.811e-007 TO 1.9612e-007
delay_37=1.00202e-008 FROM 1.861e-007 TO 1.9612e-007
delay_38=3.17744e-013 FROM 1.911e-007 TO 1.911e-007
delay_39=2.01841e-011 FROM 1.961e-007 TO 1.9612e-007
delay_40=1.88497e-011 FROM 2.011e-007 TO 2.01119e-007
delay_41=4.43467e-012 FROM 2.061e-007 TO 2.06104e-007
delay_42=6.27604e-011 FROM 2.111e-007 TO 2.11163e-007
delay_43=1.50199e-008 FROM 2.161e-007 TO 2.3112e-007
delay_44=1.00199e-008 FROM 2.211e-007 TO 2.3112e-007
delay_45=-7.40321e-013 FROM 2.261e-007 TO 2.26099e-007
delay_46=1.98955e-011 FROM 2.311e-007 TO 2.3112e-007
delay_47=1.0049e-008 FROM 2.361e-007 TO 2.46149e-007
delay_48=5.30712e-011 FROM 2.411e-007 TO 2.41153e-007
delay_49=4.89765e-011 FROM 2.461e-007 TO 2.46149e-007
delay_50=3.00109e-008 FROM 2.511e-007 TO 2.81111e-007
delay_51=2.50109e-008 FROM 2.561e-007 TO 2.81111e-007
delay_52=2.00109e-008 FROM 2.611e-007 TO 2.81111e-007
delay_53=2.38019e-011 FROM 2.661e-007 TO 2.66124e-007
delay_54=1.50225e-008 FROM 2.711e-007 TO 2.86122e-007
delay_55=1.00225e-008 FROM 2.761e-007 TO 2.86122e-007
delay_56=1.09416e-011 FROM 2.811e-007 TO 2.81111e-007
delay_57=2.24593e-011 FROM 2.861e-007 TO 2.86122e-007
delay_58=1.17249e-011 FROM 2.911e-007 TO 2.91112e-007
delay_59=1.42163e-011 FROM 2.961e-007 TO 2.96114e-007
delay_60=1.1731e-011 FROM 3.011e-007 TO 3.01112e-007
delay_61=2.17013e-011 FROM 3.061e-007 TO 3.06122e-007
delay_62=2.50225e-008 FROM 3.111e-007 TO 3.36122e-007
delay_63=2.00225e-008 FROM 3.161e-007 TO 3.36122e-007
delay_64=2.03802e-011 FROM 3.211e-007 TO 3.2112e-007

Measurement "delay_65" FAIL'ed

Measurement "delay_66" FAIL'ed
delay_67=2.24776e-011 FROM 3.361e-007 TO 3.36122e-007


Date: Sun Jan 10 21:50:22 2021
Total elapsed time: 5.768 seconds.

tnom = 27
temp = 27
method = modified trap
totiter = 6438
traniter = 6438
tranpoints = 1796
accept = 1733
rejected = 63
matrix size = 235
fillins = 16
solver = Normal
Thread vector: 1308.5/620.4[4] 67.3/37.0[3] 20.0/13.9[3] 7.6/68.7[1]  2592/500
Matrix Compiler1: 37.87 KB object code size  63.4/24.0/[14.0]
Matrix Compiler2: 30.79 KB object code size  21.3/20.7/[11.0]

