Circuit: *** SPICE deck for cell sta_char_fa_critpath{sch} from library project_kansu3

Vin2: Removing PWL point (1.2e-009,0)
Vin2: Removing PWL point (1.6e-008,0)
Vin2: Removing PWL point (3.1e-008,0)
Vin2: Removing PWL point (4.1e-008,1)
Vin2: Removing PWL point (5.6e-008,0)
Vin2: Removing PWL point (7.1e-008,0)
Vin2: Removing PWL point (8.6e-008,0)
Vin2: Removing PWL point (9.6e-008,1)
Vin2: Removing PWL point (1.11e-007,0)
Vin2: Removing PWL point (1.31e-007,1)
Vin2: Removing PWL point (1.46e-007,1)
Vin2: Removing PWL point (1.56e-007,0)
Vin2: Removing PWL point (1.76e-007,1)
Vin2: Removing PWL point (1.91e-007,0)
Vin2: Removing PWL point (2.11e-007,1)
Vin2: Removing PWL point (2.26e-007,1)
Vin2: Removing PWL point (2.36e-007,0)
Vin2: Removing PWL point (2.51e-007,0)
Vin2: Removing PWL point (2.61e-007,1)
Vin2: Removing PWL point (2.76e-007,0)
Vin1: Removing PWL point (1.2e-009,0)
Vin1: Removing PWL point (2.1e-008,1)
Vin1: Removing PWL point (5.6e-008,0)
Vin1: Removing PWL point (7.6e-008,1)
Vin1: Removing PWL point (1.11e-007,0)
Vin1: Removing PWL point (1.31e-007,0)
Vin1: Removing PWL point (1.46e-007,0)
Vin1: Removing PWL point (1.61e-007,1)
Vin1: Removing PWL point (2.01e-007,1)
Vin1: Removing PWL point (2.16e-007,0)
Vin1: Removing PWL point (2.46e-007,0)
Vin0: Removing PWL point (1.2e-009,0)
Vin0: Removing PWL point (6.1e-008,1)
Vin0: Removing PWL point (1.21e-007,1)
Vin0: Removing PWL point (1.36e-007,0)
WARNING: Node CO_BAR_LOAD_B is floating.
WARNING: Node CO_BAR_LOAD_CI is floating.
WARNING: Node S_BAR_LOAD_B is floating.
WARNING: Node S_BAR_LOAD_A is floating.

Per .tran options, skipping operating point for transient analysis.

delay_1=1.15827e-011 FROM 6.1e-009 TO 6.11158e-009
delay_2=2.62293e-011 FROM 1.11e-008 TO 1.11262e-008
delay_3=1.11352e-011 FROM 1.61e-008 TO 1.61111e-008
delay_4=3.25872e-011 FROM 2.11e-008 TO 2.11326e-008
delay_5=3.54168e-011 FROM 2.61e-008 TO 2.61354e-008
delay_6=2.59461e-011 FROM 3.11e-008 TO 3.11259e-008
delay_7=1.00226e-008 FROM 3.61e-008 TO 4.61226e-008
delay_8=6.02468e-011 FROM 4.11e-008 TO 4.11602e-008
delay_9=2.26458e-011 FROM 4.61e-008 TO 4.61226e-008
delay_10=1.00335e-008 FROM 5.11e-008 TO 6.11335e-008
delay_11=1.60256e-011 FROM 5.61e-008 TO 5.6116e-008
delay_12=3.34825e-011 FROM 6.11e-008 TO 6.11335e-008
delay_13=3.49211e-011 FROM 6.61e-008 TO 6.61349e-008
delay_14=6.61176e-011 FROM 7.11e-008 TO 7.11661e-008
delay_15=4.17812e-011 FROM 7.61e-008 TO 7.61418e-008
delay_16=1.0683e-011 FROM 8.11e-008 TO 8.11107e-008
delay_17=9.70869e-012 FROM 8.61e-008 TO 8.61097e-008
delay_18=1.00371e-008 FROM 9.11e-008 TO 1.01137e-007
delay_19=9.88844e-012 FROM 9.61e-008 TO 9.61099e-008
delay_20=3.70611e-011 FROM 1.011e-007 TO 1.01137e-007
delay_21=2.50558e-008 FROM 1.061e-007 TO 1.31156e-007
delay_22=2.8251e-011 FROM 1.111e-007 TO 1.11128e-007
delay_23=3.00227e-008 FROM 1.161e-007 TO 1.46123e-007
delay_24=2.50227e-008 FROM 1.211e-007 TO 1.46123e-007
delay_25=2.00227e-008 FROM 1.261e-007 TO 1.46123e-007
delay_26=5.58211e-011 FROM 1.311e-007 TO 1.31156e-007
delay_27=2.00075e-008 FROM 1.361e-007 TO 1.56107e-007
delay_28=1.50075e-008 FROM 1.411e-007 TO 1.56107e-007
delay_29=2.271e-011 FROM 1.461e-007 TO 1.46123e-007
delay_30=5.08052e-009 FROM 1.511e-007 TO 1.56181e-007
delay_31=8.0521e-011 FROM 1.561e-007 TO 1.56181e-007
delay_32=3.30878e-011 FROM 1.611e-007 TO 1.61133e-007
delay_33=5.89598e-011 FROM 1.661e-007 TO 1.66159e-007
delay_34=1.00106e-008 FROM 1.711e-007 TO 1.81111e-007
delay_35=2.78645e-011 FROM 1.761e-007 TO 1.76128e-007
delay_36=1.06247e-011 FROM 1.811e-007 TO 1.81111e-007
delay_37=1.50196e-008 FROM 1.861e-007 TO 2.0112e-007
delay_38=1.00196e-008 FROM 1.911e-007 TO 2.0112e-007
delay_39=4.99908e-011 FROM 1.961e-007 TO 1.9615e-007
delay_40=3.96347e-011 FROM 2.011e-007 TO 2.0114e-007
delay_41=5.08012e-009 FROM 2.061e-007 TO 2.1118e-007
delay_42=8.01204e-011 FROM 2.111e-007 TO 2.1118e-007
delay_43=2.00362e-008 FROM 2.161e-007 TO 2.36136e-007
delay_44=1.50362e-008 FROM 2.211e-007 TO 2.36136e-007
delay_45=1.00362e-008 FROM 2.261e-007 TO 2.36136e-007
delay_46=7.04805e-012 FROM 2.311e-007 TO 2.31107e-007
delay_47=4.94298e-011 FROM 2.361e-007 TO 2.36149e-007
delay_48=6.87352e-011 FROM 2.411e-007 TO 2.41169e-007
delay_49=2.50143e-008 FROM 2.461e-007 TO 2.71114e-007
delay_50=2.00143e-008 FROM 2.511e-007 TO 2.71114e-007
delay_51=3.85038e-011 FROM 2.561e-007 TO 2.56139e-007
delay_52=2.00389e-008 FROM 2.611e-007 TO 2.81139e-007
delay_53=1.50389e-008 FROM 2.661e-007 TO 2.81139e-007
delay_54=1.42988e-011 FROM 2.711e-007 TO 2.71114e-007

Measurement "delay_55" FAIL'ed
delay_56=3.89004e-011 FROM 2.811e-007 TO 2.81139e-007


Date: Tue Jan 12 15:16:47 2021
Total elapsed time: 5.220 seconds.

tnom = 27
temp = 27
method = modified trap
totiter = 5846
traniter = 5846
tranpoints = 1626
accept = 1584
rejected = 42
matrix size = 336
fillins = 32
solver = Normal
Thread vector: 1939.5/1155.1[3] 93.5/46.8[3] 27.0/13.5[3] 18.2/999.3[1]  2592/500
Matrix Compiler1: 58.54 KB object code size  78.0/62.6/[31.4]
Matrix Compiler2: 44.52 KB object code size  31.0/51.7/[19.8]

