Circuit: *** SPICE deck for cell sta_char_ff_x7{sch} from library project_kansu3

Per .tran options, skipping operating point for transient analysis.


Measurement "holdtime" FAIL'ed

Measurement "setuptime" FAIL'ed
cqdelay_rise=2.78063e-011 FROM 1.115e-008 TO 1.11778e-008
cqdelay_fall=3.11551e-011 FROM 1.515e-008 TO 1.51812e-008


Date: Mon Jan 11 00:30:00 2021
Total elapsed time: 5.295 seconds.

tnom = 27
temp = 27
method = modified trap
totiter = 3215
traniter = 3215
tranpoints = 1185
accept = 1156
rejected = 29
matrix size = 332
fillins = 12
solver = Normal
Thread vector: 5163.7/4157.5[4] 105.1/57.3[4] 44.9/30.0[2] 10.4/216.9[1]  2592/500
Matrix Compiler1: 47.63 KB object code size  104.9/27.4/[20.3]
Matrix Compiler2: 41.20 KB object code size  38.6/24.6/[16.1]

