Circuit: *** SPICE deck for cell wavtest{sch} from library project_kansu3

Error on line 10 : v1 a gnd wavfile="/home/vasid/.git/courses/dic_proj/spice_scripts/fa_characterize/fa_char_inputs0.wav"
	 Unknown parameter "wavfile"
WARNING: Less than two connections to node A.  This node is used by V1.
V1: Missing value, assumed 0V @ DC
.OP point found by inspection.

Date: Sat Jan 09 18:53:59 2021
Total elapsed time: 0.815 seconds.

tnom = 27
temp = 27
method = modified trap
totiter = 2082
traniter = 2082
tranpoints = 1042
accept = 1042
rejected = 0
matrix size = 2
fillins = 0
solver = Normal
Matrix Compiler1: 18 bytes object code size  1.3/1.4/[1.4]
Matrix Compiler2: 82 bytes object code size  1.4/1.4/[1.4]

